ProjectFiles/K1/DSSfiles/K1_VLN_Node.Txt

LINE-GROUND and LINE-LINE VOLTAGES BY BUS & NODE

Bus             Node    VLN (kV)   Angle      pu     Base kV    Node-Node   VLL (kV)  Angle      pu

SOURCEBUS ..... 1       2.5217 /_    0.0    1.0499     4.160        1-2     4.3676 /_   30.0    1.0499
   -            2       2.5216 /_ -120.0    1.0499     4.160        2-3     4.3675 /_  -90.0    1.0499
   -            3       2.5216 /_  120.0    1.0499     4.160        3-1     4.3676 /_  150.0    1.0499
DEV_50011134 .. 1       2.4525 /_   -0.9    1.0211     4.160
DEV_50011135 .. 1       2.4525 /_   -0.9    1.0211     4.160
DEV_50015856 .. 1       2.4956 /_   -0.2    1.0391     4.160
DEV_50015857 .. 1       2.4956 /_   -0.2    1.0391     4.160
DEV_50026561 .. 1        2.454 /_   -0.9    1.0217     4.160
DEV_50026562 .. 1        2.454 /_   -0.9    1.0217     4.160
DEV_50026579 .. 3       2.3447 /_  116.9   0.97624     4.160
DEV_50026580 .. 3       2.3447 /_  116.9   0.97624     4.160
DEV_50172 ..... 2       2.3101 /_ -121.8   0.96183     4.160
DEV_50171 ..... 2       2.3101 /_ -121.8   0.96183     4.160
DEV_50166 ..... 2       2.3095 /_ -121.8   0.96159     4.160
DEV_50165 ..... 2       2.3095 /_ -121.8   0.96159     4.160
DEV_50210 ..... 1       2.4429 /_   -1.2    1.0171     4.160
DEV_50213 ..... 1       2.4429 /_   -1.2    1.0171     4.160
DEV_50262 ..... 3       2.3424 /_  116.8   0.97529     4.160
DEV_50261 ..... 3       2.3424 /_  116.8   0.97529     4.160
DEV_50265 ..... 3       2.3424 /_  116.8   0.97529     4.160
DEV_50264 ..... 3       2.3424 /_  116.8   0.97529     4.160
DEV_51048014 .. 2        2.445 /_ -120.7     1.018     4.160
DEV_51048015 .. 2        2.445 /_ -120.7     1.018     4.160
DEV_51066670 .. 2       2.4183 /_ -120.8    1.0069     4.160
DEV_51066671 .. 2       2.4183 /_ -120.8    1.0069     4.160
DEV_51066702 .. 1       2.4426 /_   -1.2     1.017     4.160
DEV_51066703 .. 1       2.4426 /_   -1.2     1.017     4.160
DEV_51071430 .. 2       2.3653 /_ -121.2   0.98482     4.160
DEV_51071431 .. 2       2.3653 /_ -121.2   0.98482     4.160
DEV_51091906 .. 2       2.4155 /_ -120.9    1.0057     4.160
DEV_51091907 .. 2       2.4155 /_ -120.9    1.0057     4.160
DEV_51121406 .. 1       2.4443 /_   -1.3    1.0177     4.160
DEV_51121407 .. 1       2.4443 /_   -1.3    1.0177     4.160
DEV_63398 ..... 3       2.3575 /_  117.0   0.98155     4.160
DEV_63399 ..... 3       2.3575 /_  117.0   0.98155     4.160
DEV_63403 ..... 3       2.3578 /_  117.0   0.98169     4.160
DEV_63402 ..... 3       2.3578 /_  117.0   0.98169     4.160
DEV_63673 ..... 2       2.3368 /_ -121.5   0.97295     4.160
DEV_63545 ..... 2       2.3368 /_ -121.5   0.97295     4.160
DEV_63826 ..... 3       2.3585 /_  117.1   0.98198     4.160
DEV_63827 ..... 3       2.3585 /_  117.1   0.98198     4.160
DEV_64039 ..... 1       2.4444 /_   -1.3    1.0177     4.160
DEV_63854 ..... 1       2.4444 /_   -1.3    1.0177     4.160
DEV_64297 ..... 3       2.3362 /_  116.6    0.9727     4.160
DEV_64050 ..... 3       2.3362 /_  116.6    0.9727     4.160
DEV_64299 ..... 3       2.3355 /_  116.6    0.9724     4.160
DEV_64054 ..... 3       2.3355 /_  116.6    0.9724     4.160
DEV_64060 ..... 3       2.3355 /_  116.6   0.97242     4.160
DEV_64058 ..... 3       2.3355 /_  116.6   0.97242     4.160
DEV_64158 ..... 1       2.4444 /_   -1.3    1.0177     4.160
DEV_64185 ..... 1       2.4444 /_   -1.3    1.0177     4.160
DEV_50016592 .. 1        2.444 /_   -1.3    1.0176     4.160
DEV_50016591 .. 1        2.444 /_   -1.3    1.0176     4.160
DEV_64244 ..... 1       2.4396 /_   -1.3    1.0157     4.160
DEV_64248 ..... 1       2.4396 /_   -1.3    1.0157     4.160
DEV_64252 ..... 1       2.4396 /_   -1.3    1.0158     4.160
DEV_63855 ..... 1       2.4396 /_   -1.3    1.0158     4.160
DEV_64224 ..... 1       2.4426 /_   -1.3     1.017     4.160
DEV_64226 ..... 1       2.4426 /_   -1.3     1.017     4.160
DEV_64281 ..... 1       2.4423 /_   -1.3    1.0169     4.160
DEV_64277 ..... 1       2.4423 /_   -1.3    1.0169     4.160
DEV_64144 ..... 1       2.4435 /_   -1.3    1.0174     4.160
DEV_64186 ..... 1       2.4435 /_   -1.3    1.0174     4.160
DEV_64472 ..... 3       2.4068 /_  117.8    1.0021     4.160
DEV_64473 ..... 3       2.4068 /_  117.8    1.0021     4.160
DEV_64480 ..... 3       2.4075 /_  117.8    1.0024     4.160
DEV_64479 ..... 3       2.4075 /_  117.8    1.0024     4.160
DEV_64577 ..... 3       2.3941 /_  117.5   0.99681     4.160
DEV_64576 ..... 3       2.3941 /_  117.5   0.99681     4.160
DEV_64598 ..... 1        2.487 /_   -0.6    1.0355     4.160        1-2     4.2334 /_   28.6    1.0177
   -            2       2.3948 /_ -120.9   0.99708     4.160        2-3     4.1857 /_  -91.5    1.0062
   -            3       2.4042 /_  117.7     1.001     4.160        3-1     4.1996 /_  149.1    1.0095
DEV_64601 ..... 1        2.487 /_   -0.6    1.0355     4.160        1-2     4.2334 /_   28.6    1.0177
   -            2       2.3948 /_ -120.9   0.99708     4.160        2-3     4.1857 /_  -91.5    1.0062
   -            3       2.4042 /_  117.7     1.001     4.160        3-1     4.1996 /_  149.1    1.0095
DEV_64623 ..... 2       2.3659 /_ -121.2   0.98507     4.160
DEV_64622 ..... 2       2.3659 /_ -121.2   0.98507     4.160
DEV_64823 ..... 1       2.4869 /_   -0.3    1.0355     4.160
DEV_64822 ..... 1       2.4869 /_   -0.3    1.0355     4.160
DEV_51266982 .. 2        2.424 /_ -120.8    1.0093     4.160
DEV_51266979 .. 2        2.424 /_ -120.8    1.0093     4.160
DEV_64854 ..... 2       2.4113 /_ -121.0     1.004     4.160
DEV_64853 ..... 2       2.4113 /_ -121.0     1.004     4.160
DEV_64884 ..... 1       2.4823 /_   -0.3    1.0335     4.160        1-2     4.2653 /_   29.0    1.0253
   -            2       2.4278 /_ -120.9    1.0108     4.160        2-3     4.2324 /_  -91.1    1.0174
   -            3       2.4468 /_  118.5    1.0187     4.160        3-1     4.2445 /_  149.4    1.0203
PRI_64883 ..... 1       2.4823 /_   -0.3    1.0335     4.160        1-2     4.2653 /_   29.0    1.0253
   -            2       2.4278 /_ -120.9    1.0108     4.160        2-3     4.2324 /_  -91.1    1.0174
   -            3       2.4468 /_  118.5    1.0187     4.160        3-1     4.2445 /_  149.4    1.0203
DEV_65232 ..... 1       2.4823 /_   -0.4    1.0335     4.160
DEV_65082 ..... 1       2.4823 /_   -0.4    1.0335     4.160
DEV_65128 ..... 1         2.48 /_   -0.5    1.0326     4.160
DEV_65129 ..... 1         2.48 /_   -0.5    1.0326     4.160
DEV_64817 ..... 1         2.48 /_   -0.5    1.0326     4.160
DEV_64816 ..... 1         2.48 /_   -0.5    1.0326     4.160
DEV_65052 ..... 2       2.4009 /_ -121.0   0.99965     4.160
DEV_64814 ..... 2       2.4009 /_ -121.0   0.99965     4.160
DEV_64818 ..... 1       2.4797 /_   -0.4    1.0325     4.160
DEV_64819 ..... 1       2.4797 /_   -0.4    1.0325     4.160
DEV_51227346 .. 2       2.4167 /_ -120.9    1.0062     4.160
DEV_51227341 .. 2       2.4167 /_ -120.9    1.0062     4.160
DEV_65079 ..... 1       2.4825 /_   -0.4    1.0336     4.160
DEV_65256 ..... 1       2.4825 /_   -0.4    1.0336     4.160
DEV_65240 ..... 1       2.4829 /_   -0.4    1.0338     4.160
DEV_65047 ..... 1       2.4829 /_   -0.4    1.0338     4.160
DEV_65252 ..... 2       2.4139 /_ -121.0    1.0051     4.160
DEV_65251 ..... 2       2.4139 /_ -121.0    1.0051     4.160
DEV_65229 ..... 3       2.4929 /_  119.4    1.0379     4.160
DEV_65158 ..... 3       2.4929 /_  119.4    1.0379     4.160
DEV_64834 ..... 3       2.4929 /_  119.4    1.0379     4.160
DEV_64835 ..... 3       2.4929 /_  119.4    1.0379     4.160
DEV_65228 ..... 3       2.4931 /_  119.4     1.038     4.160
DEV_65160 ..... 3       2.4931 /_  119.4     1.038     4.160
DEV_65336 ..... 3       2.4337 /_  118.3    1.0133     4.160
DEV_65335 ..... 3       2.4337 /_  118.3    1.0133     4.160
DEV_64295 ..... 1       2.4396 /_   -1.3    1.0157     4.160
DEV_64610 ..... 1        2.487 /_   -0.6    1.0355     4.160        1-2     4.2334 /_   28.6    1.0177
   -            2       2.3948 /_ -120.9   0.99709     4.160        2-3     4.1857 /_  -91.5    1.0062
   -            3       2.4042 /_  117.7     1.001     4.160        3-1     4.1997 /_  149.1    1.0095
DEV_64600 ..... 1        2.487 /_   -0.6    1.0355     4.160        1-2     4.2334 /_   28.6    1.0177
   -            2       2.3947 /_ -120.9   0.99707     4.160        2-3     4.1857 /_  -91.5    1.0062
   -            3       2.4042 /_  117.7     1.001     4.160        3-1     4.1996 /_  149.1    1.0095
NODE_30123245 . 3        2.344 /_  116.9   0.97595     4.160
NODE_272059 ... 3       2.3438 /_  116.9   0.97584     4.160
DEV_64114 ..... 3       2.3441 /_  116.9   0.97597     4.160
NODE_30126760 . 1       2.4526 /_   -0.9    1.0212     4.160        1-2     4.1595 /_   28.1   0.99988
   -            2        2.342 /_ -121.3   0.97509     4.160        2-3     4.0985 /_  -92.1   0.98522
   -            3       2.3499 /_  117.0   0.97839     4.160        3-1     4.1151 /_  148.8   0.98922
DEV_64072 ..... 1       2.4523 /_   -0.9     1.021     4.160        1-2     4.1591 /_   28.1   0.99978
   -            2       2.3418 /_ -121.3   0.97501     4.160        2-3     4.0982 /_  -92.1   0.98513
   -            3       2.3496 /_  117.0   0.97829     4.160        3-1     4.1147 /_  148.8   0.98912
DEV_50011123 .. 1       2.4526 /_   -0.9    1.0212     4.160
DEV_50011121 .. 1       2.4526 /_   -0.9    1.0211     4.160
DEV_63869 ..... 2       2.3637 /_ -121.2   0.98414     4.160
DEV_50017188 .. 2       2.3629 /_ -121.2   0.98381     4.160
DEV_64122 ..... 1       2.4541 /_   -0.9    1.0218     4.160
   -            3       2.3454 /_  116.9   0.97651     4.160        3-1     4.1109 /_  148.8    0.9882
DEV_50026552 .. 1       2.4541 /_   -0.9    1.0218     4.160
DEV_50026573 .. 3       2.3452 /_  116.9   0.97644     4.160
NODE_31158815 . 1       2.4539 /_   -1.0    1.0217     4.160
DEV_50026603 .. 1       2.4539 /_   -1.0    1.0217     4.160
DEV_50026589 .. 1       2.4539 /_   -1.0    1.0217     4.160
DEV_50026553 .. 1       2.4541 /_   -0.9    1.0218     4.160
DEV_50026576 .. 3       2.3452 /_  116.9   0.97644     4.160
DEV_50150 ..... 2       2.3112 /_ -121.8   0.96229     4.160        2-3     4.0583 /_  -92.4   0.97555
   -            3        2.336 /_  116.5   0.97261     4.160
DEV_50151 ..... 2       2.3105 /_ -121.8   0.96199     4.160        2-3     4.0575 /_  -92.4   0.97535
   -            3       2.3358 /_  116.5   0.97252     4.160
PRI_50145 ..... 2       2.3105 /_ -121.8   0.96199     4.160        2-3     4.0575 /_  -92.4   0.97535
   -            3       2.3358 /_  116.5   0.97252     4.160
DEV_51042715 .. 1       2.5008 /_   -0.2    1.0412     4.160        1-2      4.315 /_   29.4    1.0373
   -            2       2.4723 /_ -120.6    1.0294     4.160        2-3     4.2983 /_  -90.5    1.0332
   -            3       2.4883 /_  119.3     1.036     4.160        3-1     4.3101 /_  149.7    1.0361
NODE_302531 ... 1       2.4985 /_   -0.2    1.0403     4.160        1-2     4.3101 /_   29.4    1.0361
   -            2       2.4679 /_ -120.6    1.0275     4.160        2-3     4.2919 /_  -90.6    1.0317
   -            3       2.4852 /_  119.3    1.0347     4.160        3-1     4.3047 /_  149.6    1.0348
DEV_59852 ..... 1       2.4428 /_   -1.2    1.0171     4.160        1-2     4.1349 /_   27.7   0.99396
   -            2       2.3211 /_ -121.6    0.9664     4.160        2-3      4.068 /_  -92.4   0.97788
   -            3        2.335 /_  116.6   0.97218     4.160        3-1     4.0913 /_  148.5   0.98348
NODE_31154633 . 1       2.4427 /_   -1.2     1.017     4.160
DEV_51066697 .. 1       2.4427 /_   -1.2     1.017     4.160
DEV_51066699 .. 1       2.4427 /_   -1.2     1.017     4.160
DEV_51079296 .. 3       2.3944 /_  117.5   0.99693     4.160
NODE_229056 ... 3       2.3942 /_  117.5   0.99685     4.160
DEV_65288 ..... 1       2.4828 /_   -0.3    1.0337     4.160        1-2     4.2657 /_   29.0    1.0254
   -            2       2.4277 /_ -120.9    1.0108     4.160        2-3     4.2324 /_  -91.1    1.0174
   -            3       2.4469 /_  118.5    1.0188     4.160        3-1     4.2448 /_  149.4    1.0204
NODE_31205742 . 1       2.4823 /_   -0.3    1.0335     4.160        1-2     4.2653 /_   29.0    1.0253
   -            2       2.4278 /_ -120.9    1.0108     4.160        2-3     4.2324 /_  -91.1    1.0174
   -            3       2.4468 /_  118.5    1.0187     4.160        3-1     4.2445 /_  149.4    1.0203
NODE_228687 ... 1       2.4432 /_   -1.2    1.0172     4.160        1-2     4.1365 /_   27.8   0.99435
   -            2       2.3235 /_ -121.6   0.96742     4.160        2-3     4.0708 /_  -92.4   0.97855
   -            3       2.3354 /_  116.6   0.97237     4.160        3-1     4.0925 /_  148.5   0.98378
NODE_10002245 . 1       2.4435 /_   -1.2    1.0174     4.160        1-2     4.1377 /_   27.8   0.99465
   -            2       2.3252 /_ -121.6   0.96813     4.160        2-3     4.0727 /_  -92.4   0.97902
   -            3       2.3357 /_  116.6    0.9725     4.160        3-1     4.0934 /_  148.5     0.984
DEV_59857 ..... 1       2.4434 /_   -1.2    1.0173     4.160        1-2     4.1372 /_   27.8   0.99453
   -            2       2.3245 /_ -121.6   0.96784     4.160        2-3     4.0719 /_  -92.4   0.97883
   -            3       2.3356 /_  116.6   0.97245     4.160        3-1     4.0931 /_  148.5   0.98391
DEV_59860 ..... 1       2.4428 /_   -1.2    1.0171     4.160        1-2     4.1342 /_   27.7    0.9938
   -            2       2.3198 /_ -121.7   0.96586     4.160        2-3     4.0666 /_  -92.4   0.97755
   -            3       2.3349 /_  116.6   0.97214     4.160        3-1     4.0908 /_  148.5   0.98337
NODE_12001288 . 2       2.3113 /_ -121.8   0.96232     4.160        2-3     4.0584 /_  -92.4   0.97557
   -            3        2.336 /_  116.5   0.97261     4.160
NODE_228693 ... 1       2.4419 /_   -1.2    1.0167     4.160        1-2     4.1298 /_   27.6   0.99273
   -            2       2.3115 /_ -121.8   0.96242     4.160        2-3     4.0586 /_  -92.4   0.97563
   -            3       2.3361 /_  116.6   0.97264     4.160        3-1     4.0896 /_  148.5   0.98307
DEV_59845 ..... 1       2.4431 /_   -1.2    1.0172     4.160
DEV_59840 ..... 1       2.4431 /_   -1.2    1.0172     4.160
DEV_50176 ..... 2       2.3114 /_ -121.8   0.96238     4.160
DEV_50155 ..... 2       2.3114 /_ -121.8   0.96236     4.160
NODE_30107673 . 1       2.4419 /_   -1.2    1.0167     4.160        1-2     4.1298 /_   27.6   0.99273
   -            2       2.3115 /_ -121.8   0.96242     4.160        2-3     4.0586 /_  -92.4   0.97564
   -            3       2.3361 /_  116.6   0.97264     4.160        3-1     4.0896 /_  148.5   0.98307
NODE_10049044 . 1       2.5208 /_    0.0    1.0496     4.160        1-2     4.3615 /_   29.9    1.0484
   -            2       2.5149 /_ -120.0    1.0471     4.160        2-3     4.3593 /_  -90.1    1.0479
   -            3       2.5169 /_  119.9    1.0479     4.160        3-1     4.3608 /_  150.0    1.0483
DEV_63225 ..... 1       2.5214 /_    0.0    1.0498     4.160        1-2     4.3629 /_   29.9    1.0488
   -            2       2.5162 /_ -120.0    1.0476     4.160        2-3     4.3611 /_  -90.1    1.0483
   -            3       2.5177 /_  119.9    1.0483     4.160        3-1     4.3623 /_  150.0    1.0486
DEV_63857 ..... 1       2.4652 /_   -0.8    1.0264     4.160        1-2     4.1827 /_   28.3    1.0055
   -            2       2.3554 /_ -121.2   0.98069     4.160        2-3     4.1232 /_  -91.9   0.99117
   -            3       2.3667 /_  117.2   0.98541     4.160        3-1     4.1416 /_  148.9   0.99558
DEV_64149 ..... 1       2.4619 /_   -0.8     1.025     4.160        1-2     4.1759 /_   28.2    1.0038
   -            2       2.3512 /_ -121.2   0.97893     4.160        2-3     4.1152 /_  -92.0   0.98924
   -            3       2.3606 /_  117.1   0.98286     4.160        3-1     4.1328 /_  148.9   0.99345
DEV_64310 ..... 1        2.462 /_   -0.8    1.0251     4.160        1-2     4.1759 /_   28.2    1.0038
   -            2       2.3511 /_ -121.2   0.97889     4.160        2-3      4.115 /_  -92.0   0.98918
   -            3       2.3602 /_  117.1    0.9827     4.160        3-1     4.1324 /_  148.9   0.99337
DEV_64004 ..... 1       2.4576 /_   -0.9    1.0233     4.160        1-2     4.1682 /_   28.2     1.002
   -            2       2.3466 /_ -121.2   0.97705     4.160        2-3     4.1071 /_  -92.0   0.98729
   -            3       2.3554 /_  117.0   0.98067     4.160        3-1     4.1243 /_  148.8   0.99141
DEV_63875 ..... 3       2.3595 /_  117.1   0.98239     4.160
TIE_272144 .... 1       2.4623 /_   -0.8    1.0252     4.160        1-2     4.1759 /_   28.2    1.0038
   -            2       2.3509 /_ -121.2   0.97883     4.160        2-3     4.1147 /_  -92.0    0.9891
   -            3       2.3595 /_  117.1    0.9824     4.160        3-1     4.1317 /_  148.9    0.9932
DEV_63873 ..... 3       2.3595 /_  117.1   0.98238     4.160
NODE_10002231 . 2        2.364 /_ -121.2   0.98428     4.160
DEV_64124 ..... 1       2.4541 /_   -0.9    1.0218     4.160
   -            3       2.3465 /_  116.9   0.97698     4.160        3-1     4.1121 /_  148.8   0.98848
DEV_64120 ..... 3       2.3437 /_  116.9    0.9758     4.160
DEV_64121 ..... 3       2.3432 /_  116.8   0.97561     4.160
DEV_64012 ..... 3       2.3432 /_  116.8    0.9756     4.160
DEV_64013 ..... 3       2.3431 /_  116.8   0.97559     4.160
NODE_272423 ... 1       2.4445 /_   -1.3    1.0178     4.160        1-2     4.1434 /_   27.8     0.996
   -            2       2.3333 /_ -121.5    0.9715     4.160        2-3     4.0827 /_  -92.4   0.98142
   -            3        2.339 /_  116.7   0.97387     4.160        3-1     4.0993 /_  148.5    0.9854
NODE_272425 ... 1       2.4446 /_   -1.3    1.0178     4.160        1-2     4.1445 /_   27.9   0.99628
   -            2       2.3349 /_ -121.5   0.97214     4.160        2-3     4.0849 /_  -92.4   0.98194
   -            3       2.3402 /_  116.7   0.97438     4.160        3-1      4.101 /_  148.5   0.98581
DEV_64157 ..... 1       2.4445 /_   -1.3    1.0178     4.160
NODE_272419 ... 1       2.4443 /_   -1.2    1.0177     4.160        1-2     4.1406 /_   27.8   0.99534
   -            2       2.3292 /_ -121.5   0.96978     4.160        2-3     4.0773 /_  -92.4   0.98011
   -            3       2.3364 /_  116.6   0.97277     4.160        3-1     4.0955 /_  148.5   0.98449
DEV_64044 ..... 1       2.4445 /_   -1.3    1.0178     4.160        1-2     4.1419 /_   27.8   0.99565
   -            2       2.3311 /_ -121.5   0.97058     4.160        2-3     4.0797 /_  -92.4    0.9807
   -            3       2.3374 /_  116.6   0.97318     4.160        3-1      4.097 /_  148.5   0.98487
DEV_64047 ..... 3       2.3363 /_  116.6   0.97275     4.160
DEV_64063 ..... 3       2.3363 /_  116.6   0.97275     4.160
DEV_64065 ..... 1       2.4438 /_   -1.2    1.0175     4.160        1-2     4.1387 /_   27.8   0.99488
   -            2       2.3266 /_ -121.6   0.96868     4.160        2-3     4.0742 /_  -92.4   0.97939
   -            3       2.3359 /_  116.6   0.97259     4.160        3-1     4.0941 /_  148.5   0.98416
DEV_64126 ..... 1       2.4542 /_   -0.9    1.0218     4.160        1-2     4.1612 /_   28.1    1.0003
   -            2       2.3423 /_ -121.3   0.97523     4.160        2-3     4.0993 /_  -92.1   0.98542
   -            3       2.3499 /_  117.0   0.97838     4.160        3-1     4.1159 /_  148.8   0.98939
DEV_64128 ..... 1       2.4541 /_   -0.9    1.0218     4.160        1-2     4.1605 /_   28.1    1.0001
   -            2       2.3416 /_ -121.3   0.97496     4.160        2-3     4.0982 /_  -92.1   0.98515
   -            3       2.3488 /_  117.0   0.97794     4.160        3-1     4.1145 /_  148.8   0.98907
DEV_64125 ..... 1       2.4541 /_   -0.9    1.0218     4.160        1-2       4.16 /_   28.1         1
   -            2       2.3415 /_ -121.2    0.9749     4.160        2-3     4.0976 /_  -92.1     0.985
   -            3       2.3476 /_  116.9   0.97744     4.160        3-1     4.1132 /_  148.8   0.98875
DEV_63947 ..... 1       2.4536 /_   -1.0    1.0216     4.160
DEV_64081 ..... 1       2.4446 /_   -1.3    1.0178     4.160        1-2     4.1445 /_   27.9   0.99628
   -            2       2.3349 /_ -121.5   0.97214     4.160        2-3     4.0849 /_  -92.4   0.98194
   -            3       2.3402 /_  116.7   0.97438     4.160        3-1      4.101 /_  148.5   0.98581
DEV_64098 ..... 1       2.4448 /_   -1.3    1.0179     4.160        1-2     4.1463 /_   27.9    0.9967
   -            2       2.3371 /_ -121.5   0.97308     4.160        2-3     4.0881 /_  -92.3   0.98271
   -            3        2.342 /_  116.7   0.97513     4.160        3-1     4.1035 /_  148.5   0.98642
NODE_30051728 . 1       2.4622 /_   -0.8    1.0251     4.160        1-2     4.1759 /_   28.2    1.0038
   -            2        2.351 /_ -121.2   0.97886     4.160        2-3     4.1148 /_  -92.0   0.98914
   -            3       2.3599 /_  117.1   0.98256     4.160        3-1     4.1321 /_  148.9   0.99329
DEV_64184 ..... 1       2.4445 /_   -1.3    1.0178     4.160
NODE_297599 ... 1       2.4424 /_   -1.3    1.0169     4.160
DEV_64234 ..... 1       2.4424 /_   -1.3    1.0169     4.160
DEV_64237 ..... 1       2.4425 /_   -1.3     1.017     4.160
NODE_272429 ... 1       2.4412 /_   -1.3    1.0164     4.160
DEV_64241 ..... 1       2.4401 /_   -1.3     1.016     4.160
NODE_272431 ... 1       2.4401 /_   -1.3     1.016     4.160
DEV_64250 ..... 1       2.4401 /_   -1.3     1.016     4.160
DEV_64271 ..... 1       2.4393 /_   -1.3    1.0156     4.160
DEV_64257 ..... 1       2.4392 /_   -1.3    1.0156     4.160
DEV_64260 ..... 1       2.4392 /_   -1.3    1.0156     4.160
NODE_272459 ... 1       2.4391 /_   -1.3    1.0155     4.160
NODE_272461 ... 1       2.4389 /_   -1.3    1.0155     4.160
DEV_64263 ..... 1       2.4387 /_   -1.3    1.0154     4.160
DEV_64270 ..... 1       2.4387 /_   -1.3    1.0154     4.160
DEV_51044932 .. 1       2.4378 /_   -1.3     1.015     4.160
DEV_64268 ..... 1       2.4377 /_   -1.3    1.0149     4.160
DEV_64269 ..... 1       2.4372 /_   -1.3    1.0148     4.160
DEV_64264 ..... 1       2.4386 /_   -1.3    1.0153     4.160
DEV_64389 ..... 1       2.4543 /_   -0.9    1.0219     4.160        1-2      4.162 /_   28.2    1.0005
   -            2        2.343 /_ -121.3   0.97555     4.160        2-3     4.1006 /_  -92.1   0.98573
   -            3       2.3511 /_  117.0    0.9789     4.160        3-1     4.1175 /_  148.8   0.98977
NODE_30113351 . 1       2.4543 /_   -0.9    1.0219     4.160        1-2     4.1621 /_   28.2    1.0005
   -            2       2.3431 /_ -121.3   0.97559     4.160        2-3     4.1008 /_  -92.1   0.98577
   -            3       2.3513 /_  117.0   0.97897     4.160        3-1     4.1177 /_  148.8   0.98982
DEV_64109 ..... 3       2.3441 /_  116.9   0.97597     4.160
DEV_64490 ..... 1       2.4692 /_   -0.8    1.0281     4.160        1-2      4.191 /_   28.3    1.0074
   -            2       2.3605 /_ -121.1   0.98283     4.160        2-3     4.1329 /_  -91.8   0.99349
   -            3       2.3741 /_  117.3   0.98848     4.160        3-1     4.1523 /_  148.9   0.99814
NODE_228982 ... 1        2.477 /_   -0.7    1.0313     4.160        1-2     4.2073 /_   28.4    1.0114
   -            2       2.3707 /_ -121.1   0.98704     4.160        2-3      4.152 /_  -91.7   0.99809
   -            3       2.3887 /_  117.4   0.99456     4.160        3-1     4.1733 /_  149.0    1.0032
DEV_64492 ..... 1       2.4823 /_   -0.7    1.0335     4.160        1-2     4.2194 /_   28.5    1.0143
   -            2       2.3818 /_ -121.0   0.99169     4.160        2-3     4.1677 /_  -91.6    1.0018
   -            3       2.3951 /_  117.5   0.99721     4.160        3-1     4.1851 /_  149.1     1.006
DEV_64587 ..... 1       2.4868 /_   -0.6    1.0354     4.160        1-2     4.2295 /_   28.6    1.0167
   -            2       2.3906 /_ -120.9   0.99535     4.160        2-3     4.1801 /_  -91.6    1.0048
   -            3       2.4003 /_  117.6   0.99937     4.160        3-1     4.1947 /_  149.1    1.0083
DEV_64568 ..... 1        2.477 /_   -0.7    1.0313     4.160        1-2     4.2072 /_   28.4    1.0114
   -            2       2.3705 /_ -121.1   0.98699     4.160        2-3     4.1519 /_  -91.7   0.99806
   -            3       2.3887 /_  117.4   0.99458     4.160        3-1     4.1733 /_  149.0    1.0032
DEV_64489 ..... 1       2.4768 /_   -0.7    1.0313     4.160        1-2     4.2069 /_   28.4    1.0113
   -            2       2.3699 /_ -121.1   0.98671     4.160        2-3     4.1513 /_  -91.7   0.99791
   -            3        2.389 /_  117.4   0.99468     4.160        3-1     4.1733 /_  149.0    1.0032
DEV_64597 ..... 3       2.3976 /_  117.5   0.99825     4.160
DEV_64573 ..... 3       2.3963 /_  117.5   0.99771     4.160
DEV_64572 ..... 3       2.3946 /_  117.5   0.99701     4.160
NODE_229035 ... 3       2.3946 /_  117.5   0.99699     4.160
DEV_64571 ..... 3       2.3944 /_  117.5   0.99693     4.160
DEV_64549 ..... 1       2.4873 /_   -0.6    1.0356     4.160        1-2     4.2295 /_   28.6    1.0167
   -            2       2.3904 /_ -120.9   0.99526     4.160        2-3     4.1797 /_  -91.6    1.0047
   -            3       2.3992 /_  117.6   0.99892     4.160        3-1     4.1937 /_  149.1    1.0081
DEV_64488 ..... 2       2.3643 /_ -121.2   0.98438     4.160
DEV_64612 ..... 2        2.366 /_ -121.2   0.98509     4.160
DEV_64574 ..... 3       2.3942 /_  117.5   0.99684     4.160
DEV_64581 ..... 3       2.3942 /_  117.5   0.99684     4.160
DEV_64589 ..... 1       2.4871 /_   -0.6    1.0355     4.160        1-2     4.2303 /_   28.6    1.0169
   -            2       2.3914 /_ -120.9    0.9957     4.160        2-3     4.1813 /_  -91.6    1.0051
   -            3       2.4009 /_  117.6   0.99963     4.160        3-1     4.1958 /_  149.1    1.0086
DEV_64628 ..... 2       2.3659 /_ -121.2   0.98505     4.160
DEV_64624 ..... 2       2.3659 /_ -121.2   0.98508     4.160
DEV_65519 ..... 1       2.5047 /_   -0.2    1.0429     4.160        1-2     4.3239 /_   29.5    1.0394
   -            2       2.4804 /_ -120.5    1.0328     4.160        2-3     4.3098 /_  -90.4     1.036
   -            3       2.4935 /_  119.4    1.0382     4.160        3-1     4.3196 /_  149.7    1.0384
DEV_65048 ..... 3       2.4935 /_  119.4    1.0382     4.160
DEV_65049 ..... 3       2.4935 /_  119.4    1.0382     4.160
DEV_64867 ..... 3       2.4852 /_  119.3    1.0347     4.160
DEV_64868 ..... 2       2.4676 /_ -120.6    1.0274     4.160
DEV_64869 ..... 1       2.4983 /_   -0.2    1.0402     4.160
DEV_65322 ..... 1       2.4948 /_   -0.2    1.0387     4.160        1-2     4.2996 /_   29.3    1.0336
   -            2       2.4582 /_ -120.7    1.0235     4.160        2-3     4.2776 /_  -90.7    1.0283
   -            3       2.4763 /_  119.1     1.031     4.160        3-1     4.2907 /_  149.6    1.0314
NODE_303482 ... 1        2.491 /_   -0.3    1.0371     4.160        1-2     4.2887 /_   29.2    1.0309
   -            2       2.4483 /_ -120.8    1.0194     4.160        2-3      4.263 /_  -90.8    1.0247
   -            3       2.4668 /_  118.9    1.0271     4.160        3-1     4.2759 /_  149.5    1.0278
DEV_51288345 .. 1       2.4859 /_   -0.3     1.035     4.160        1-2     4.2741 /_   29.1    1.0274
   -            2       2.4351 /_ -120.9    1.0139     4.160        2-3     4.2434 /_  -91.0    1.0201
   -            3       2.4541 /_  118.7    1.0218     4.160        3-1     4.2561 /_  149.4    1.0231
NODE_302552 ... 1       2.4829 /_   -0.3    1.0338     4.160        1-2     4.2659 /_   29.0    1.0255
   -            2       2.4276 /_ -120.9    1.0108     4.160        2-3     4.2324 /_  -91.1    1.0174
   -            3       2.4469 /_  118.5    1.0188     4.160        3-1     4.2449 /_  149.4    1.0204
NODE_302614 ... 1       2.4789 /_   -0.4    1.0321     4.160        1-2     4.2533 /_   28.9    1.0224
   -            2       2.4154 /_ -121.0    1.0057     4.160        2-3     4.2147 /_  -91.2    1.0132
   -            3       2.4356 /_  118.3    1.0141     4.160        3-1     4.2272 /_  149.3    1.0162
DEV_64881 ..... 1       2.4829 /_   -0.3    1.0338     4.160        1-2     4.2659 /_   29.0    1.0254
   -            2       2.4276 /_ -120.9    1.0108     4.160        2-3     4.2324 /_  -91.1    1.0174
   -            3       2.4469 /_  118.5    1.0188     4.160        3-1     4.2448 /_  149.4    1.0204
DEV_65236 ..... 1       2.4788 /_   -0.4    1.0321     4.160        1-2      4.253 /_   28.9    1.0224
   -            2       2.4151 /_ -121.0    1.0055     4.160        2-3     4.2143 /_  -91.2     1.013
   -            3       2.4353 /_  118.3     1.014     4.160        3-1     4.2267 /_  149.3     1.016
DEV_64893 ..... 3       2.4355 /_  118.3     1.014     4.160
DEV_64909 ..... 1       2.4789 /_   -0.4    1.0321     4.160        1-2     4.2533 /_   28.9    1.0224
   -            2       2.4154 /_ -121.0    1.0057     4.160        2-3     4.2147 /_  -91.2    1.0132
   -            3       2.4356 /_  118.3    1.0141     4.160        3-1     4.2272 /_  149.3    1.0162
NODE_31206673 . 1       2.5074 /_   -0.1     1.044     4.160        1-2     4.3303 /_   29.6    1.0409
   -            2       2.4862 /_ -120.4    1.0352     4.160        2-3     4.3182 /_  -90.4     1.038
   -            3       2.4975 /_  119.5    1.0398     4.160        3-1     4.3266 /_  149.8      1.04
DEV_65517 ..... 1       2.5181 /_    0.0    1.0484     4.160        1-2     4.3552 /_   29.9    1.0469
   -            2       2.5091 /_ -120.1    1.0447     4.160        2-3     4.3509 /_  -90.1    1.0459
   -            3        2.513 /_  119.8    1.0463     4.160        3-1     4.3539 /_  149.9    1.0466
TIE_228948 .... 3       2.4069 /_  117.8    1.0021     4.160
TIE_228950 .... 3       2.4069 /_  117.8    1.0021     4.160
TIE_244804 .... 2        2.401 /_ -121.0   0.99969     4.160
TIE_244808 .... 1       2.4829 /_   -0.5    1.0338     4.160        1-2     4.2392 /_   28.7     1.019
   -            2        2.401 /_ -121.0   0.99969     4.160        2-3     4.1942 /_  -91.4    1.0082
   -            3       2.4148 /_  117.9    1.0054     4.160        3-1     4.2076 /_  149.2    1.0115
DEV_50011138 .. 1       2.4525 /_   -0.9    1.0211     4.160
DEV_50011141 .. 1       2.4525 /_   -0.9    1.0211     4.160
NODE_30134821 . 1        2.454 /_   -0.9    1.0218     4.160
NODE_31158821 . 1        2.454 /_   -0.9    1.0218     4.160
DEV_50026609 .. 1        2.454 /_   -0.9    1.0217     4.160
NODE_30134832 . 3       2.3448 /_  116.9   0.97626     4.160
NODE_30134833 . 3       2.3447 /_  116.9   0.97625     4.160
DEV_50026626 .. 3       2.3445 /_  116.9   0.97613     4.160
NODE_31147210 . 3       2.3441 /_  116.9     0.976     4.160
NODE_31147209 . 3       2.3441 /_  116.9   0.97601     4.160
DEV_50026621 .. 3       2.3445 /_  116.9   0.97615     4.160
DEV_50026606 .. 1        2.454 /_   -0.9    1.0217     4.160
NODE_30135727 . 1       2.4799 /_   -0.4    1.0325     4.160
DEV_65046 ..... 1       2.4797 /_   -0.4    1.0325     4.160
NODE_30106597 . 2       2.3101 /_ -121.8   0.96181     4.160
NODE_30106617 . 2       2.3103 /_ -121.8   0.96192     4.160
NODE_30106590 . 2       2.3107 /_ -121.8   0.96206     4.160
NODE_30107671 . 2       2.3114 /_ -121.8   0.96236     4.160
NODE_30107677 . 2       2.3114 /_ -121.8   0.96235     4.160
NODE_30113328 . 2         2.31 /_ -121.8   0.96181     4.160
DEV_50157 ..... 2       2.3099 /_ -121.8   0.96176     4.160
NODE_30113329 . 2       2.3099 /_ -121.8   0.96175     4.160
DEV_50158 ..... 2       2.3098 /_ -121.8    0.9617     4.160
NODE_30106616 . 2       2.3102 /_ -121.8   0.96187     4.160
NODE_10002241 . 1       2.4429 /_   -1.2    1.0171     4.160
NODE_10002242 . 1       2.4429 /_   -1.2    1.0171     4.160
NODE_10002243 . 1        2.443 /_   -1.2    1.0172     4.160
NODE_30117678 . 3       2.3429 /_  116.8   0.97549     4.160
NODE_30122102 . 3        2.343 /_  116.8   0.97551     4.160
NODE_31143048 . 3       2.3578 /_  117.0    0.9817     4.160
NODE_31154622 . 2       2.4185 /_ -120.8     1.007     4.160
NODE_31154623 . 2       2.4182 /_ -120.8    1.0068     4.160
DEV_51066785 .. 1       2.4427 /_   -1.2     1.017     4.160
DEV_51066787 .. 1       2.4426 /_   -1.2     1.017     4.160
DEV_64627 ..... 2       2.3655 /_ -121.2    0.9849     4.160
NODE_31171046 . 2       2.4159 /_ -120.9    1.0059     4.160
NODE_30105657 . 2       2.4166 /_ -120.9    1.0062     4.160
NODE_31171047 . 2        2.415 /_ -120.9    1.0055     4.160
NODE_31186548 . 1        2.483 /_   -0.3    1.0338     4.160
DEV_64825 ..... 1        2.487 /_   -0.3    1.0355     4.160
NODE_31188258 . 1       2.4443 /_   -1.3    1.0177     4.160
NODE_31188259 . 1       2.4442 /_   -1.3    1.0177     4.160
NODE_31196478 . 3        2.359 /_  117.1   0.98218     4.160
NODE_31200057 . 1       2.4433 /_   -1.3    1.0173     4.160
NODE_272298 ... 2       2.3392 /_ -121.4   0.97396     4.160
DEV_51259011 .. 2       2.3392 /_ -121.4   0.97396     4.160
NODE_10002244 . 1       2.4431 /_   -1.2    1.0172     4.160
NODE_5113412250 1       2.5217 /_    0.0    1.0499     4.160        1-2     4.3676 /_   30.0    1.0499
   -            2       2.5215 /_ -120.0    1.0499     4.160        2-3     4.3675 /_  -90.0    1.0499
   -            3       2.5216 /_  120.0    1.0499     4.160        3-1     4.3675 /_  150.0    1.0499
BLACK_PT ...... 1       2.5217 /_    0.0    1.0499     4.160        1-2     4.3676 /_   30.0    1.0499
   -            2       2.5216 /_ -120.0    1.0499     4.160        2-3     4.3675 /_  -90.0    1.0499
   -            3       2.5216 /_  120.0    1.0499     4.160        3-1     4.3675 /_  150.0    1.0499
HUNAKAI ....... 1       2.5217 /_    0.0    1.0499     4.160        1-2     4.3676 /_   30.0    1.0499
   -            2       2.5215 /_ -120.0    1.0499     4.160        2-3     4.3675 /_  -90.0    1.0499
   -            3       2.5216 /_  120.0    1.0499     4.160        3-1     4.3675 /_  150.0    1.0499
KAHALA ........ 1       2.5216 /_    0.0    1.0499     4.160        1-2     4.3676 /_   30.0    1.0499
   -            2       2.5215 /_ -120.0    1.0499     4.160        2-3     4.3675 /_  -90.0    1.0499
   -            3       2.5216 /_  120.0    1.0499     4.160        3-1     4.3675 /_  150.0    1.0499
NODE_274712 ... 3       2.3578 /_  117.0   0.98169     4.160
NODE_10002253 . 3       2.3579 /_  117.0   0.98171     4.160
NODE_274689 ... 2        2.338 /_ -121.4   0.97343     4.160
DEV_63548 ..... 2        2.338 /_ -121.4   0.97343     4.160
NODE_10002251 . 2       2.3386 /_ -121.4    0.9737     4.160
NODE_272128 ... 3       2.3585 /_  117.1   0.98199     4.160
NODE_272131 ... 3       2.3585 /_  117.1   0.98199     4.160
DEV_64018 ..... 1       2.4494 /_   -1.1    1.0198     4.160        1-2     4.1543 /_   28.0   0.99863
   -            2       2.3398 /_ -121.4   0.97421     4.160        2-3     4.0941 /_  -92.2   0.98417
   -            3        2.347 /_  116.9    0.9772     4.160        3-1     4.1106 /_  148.7   0.98811
NODE_272167 ... 1       2.4509 /_   -1.0    1.0205     4.160        1-2     4.1568 /_   28.1   0.99923
   -            2       2.3408 /_ -121.3   0.97463     4.160        2-3     4.0962 /_  -92.1   0.98467
   -            3       2.3484 /_  116.9   0.97777     4.160        3-1     4.1127 /_  148.7   0.98864
NODE_272294 ... 2       2.3396 /_ -121.4   0.97411     4.160
DEV_64021 ..... 2       2.3396 /_ -121.4   0.97411     4.160
DEV_51259074 .. 2       2.3392 /_ -121.4   0.97396     4.160
DEV_64027 ..... 2       2.3389 /_ -121.4   0.97384     4.160
DEV_64182 ..... 2       2.3389 /_ -121.4   0.97384     4.160
NODE_272264 ... 1       2.4493 /_   -1.1    1.0198     4.160        1-2     4.1541 /_   28.0   0.99859
   -            2       2.3398 /_ -121.4   0.97419     4.160        2-3      4.094 /_  -92.2   0.98414
   -            3       2.3469 /_  116.9   0.97716     4.160        3-1     4.1104 /_  148.6   0.98808
NODE_272262 ... 1       2.4479 /_   -1.1    1.0192     4.160        1-2     4.1518 /_   28.0   0.99803
   -            2        2.339 /_ -121.4   0.97388     4.160        2-3     4.0923 /_  -92.2   0.98373
   -            3       2.3455 /_  116.8   0.97657     4.160        3-1     4.1084 /_  148.6    0.9876
DEV_64032 ..... 1       2.4493 /_   -1.1    1.0198     4.160
NODE_272260 ... 1       2.4477 /_   -1.1    1.0191     4.160        1-2     4.1515 /_   28.0   0.99797
   -            2        2.339 /_ -121.4   0.97385     4.160        2-3     4.0921 /_  -92.2   0.98367
   -            3       2.3453 /_  116.8    0.9765     4.160        3-1     4.1081 /_  148.6   0.98753
DEV_51191231 .. 3       2.3484 /_  116.9   0.97777     4.160
NODE_297629 ... 3       2.3361 /_  116.6   0.97267     4.160
DEV_64083 ..... 1       2.4444 /_   -1.3    1.0178     4.160
NODE_297571 ... 1       2.4446 /_   -1.3    1.0178     4.160
NODE_12001289 . 1       2.4444 /_   -1.3    1.0178     4.160
DEV_64276 ..... 1       2.4443 /_   -1.3    1.0177     4.160
NODE_297612 ... 1       2.4448 /_   -1.3    1.0179     4.160        1-2     4.1464 /_   27.9   0.99673
   -            2       2.3373 /_ -121.5   0.97317     4.160        2-3     4.0883 /_  -92.3   0.98277
   -            3       2.3422 /_  116.7    0.9752     4.160        3-1     4.1037 /_  148.5   0.98646
DEV_64034 ..... 1       2.4479 /_   -1.1    1.0192     4.160        1-2     4.1518 /_   28.0   0.99803
   -            2        2.339 /_ -121.4   0.97388     4.160        2-3     4.0923 /_  -92.2   0.98373
   -            3       2.3455 /_  116.8   0.97657     4.160        3-1     4.1084 /_  148.6    0.9876
DEV_50014864 .. 1       2.4477 /_   -1.1    1.0191     4.160
NODE_30062336 . 1       2.4443 /_   -1.3    1.0177     4.160
NODE_30062369 . 1       2.4444 /_   -1.3    1.0177     4.160
NODE_297580 ... 1        2.444 /_   -1.3    1.0176     4.160
NODE_10001068 . 1       2.4429 /_   -1.3    1.0171     4.160
NODE_10026083 . 1       2.4439 /_   -1.3    1.0175     4.160
DEV_64222 ..... 1       2.4436 /_   -1.3    1.0174     4.160
DEV_64228 ..... 1       2.4424 /_   -1.3    1.0169     4.160
NODE_10026096 . 1       2.4424 /_   -1.3    1.0169     4.160
NODE_297593 ... 1       2.4424 /_   -1.3    1.0169     4.160
DEV_64217 ..... 1       2.4424 /_   -1.3    1.0169     4.160
NODE_10001066 . 1       2.4424 /_   -1.3    1.0169     4.160
NODE_272480 ... 1       2.4401 /_   -1.3     1.016     4.160
NODE_272476 ... 1       2.4396 /_   -1.3    1.0157     4.160
NODE_10026625 . 1       2.4439 /_   -1.3    1.0175     4.160
DEV_64608 ..... 3       2.4075 /_  117.8    1.0024     4.160
NODE_229019 ... 1       2.4858 /_   -0.6     1.035     4.160        1-2     4.2358 /_   28.7    1.0182
   -            2       2.3976 /_ -120.9   0.99826     4.160        2-3     4.1891 /_  -91.5     1.007
   -            3       2.4076 /_  117.8    1.0024     4.160        3-1     4.2027 /_  149.1    1.0103
NODE_10002228 . 1       2.4846 /_   -0.6    1.0345     4.160        1-2     4.2373 /_   28.7    1.0186
   -            2       2.3991 /_ -120.9   0.99888     4.160        2-3     4.1913 /_  -91.5    1.0075
   -            3       2.4108 /_  117.8    1.0037     4.160        3-1     4.2049 /_  149.1    1.0108
NODE_30086164 . 1        2.487 /_   -0.6    1.0355     4.160        1-2     4.2326 /_   28.6    1.0174
   -            2       2.3938 /_ -120.9   0.99669     4.160        2-3     4.1845 /_  -91.5    1.0059
   -            3       2.4035 /_  117.7    1.0007     4.160        3-1     4.1987 /_  149.1    1.0093
NODE_30086165 . 1        2.487 /_   -0.6    1.0355     4.160        1-2     4.2342 /_   28.6    1.0178
   -            2       2.3956 /_ -120.9   0.99742     4.160        2-3     4.1868 /_  -91.5    1.0064
   -            3       2.4049 /_  117.7    1.0013     4.160        3-1     4.2005 /_  149.1    1.0097
NODE_30041579 . 1        2.487 /_   -0.6    1.0355     4.160        1-2      4.234 /_   28.6    1.0178
   -            2       2.3954 /_ -120.9   0.99736     4.160        2-3     4.1865 /_  -91.5    1.0064
   -            3       2.4048 /_  117.7    1.0012     4.160        3-1     4.2003 /_  149.1    1.0097
DEV_64617 ..... 2       2.3659 /_ -121.2   0.98508     4.160
PRI_64629 ..... 2       2.3659 /_ -121.2   0.98507     4.160
DEV_65257 ..... 1       2.4826 /_   -0.4    1.0336     4.160
DEV_65159 ..... 3       2.4929 /_  119.4    1.0379     4.160
NODE_303489 ... 3        2.493 /_  119.4     1.038     4.160
NODE_244940 ... 1       2.4954 /_   -0.2     1.039     4.160
NODE_303493 ... 1       2.4877 /_   -0.3    1.0358     4.160
DEV_64856 ..... 2       2.4114 /_ -121.0     1.004     4.160
NODE_244847 ... 1       2.4797 /_   -0.4    1.0325     4.160        1-2     4.2458 /_   28.8    1.0206
   -            2        2.408 /_ -121.0    1.0026     4.160        2-3      4.204 /_  -91.3    1.0106
   -            3       2.4256 /_  118.1    1.0099     4.160        3-1     4.2168 /_  149.2    1.0136
NODE_302583 ... 1       2.4793 /_   -0.4    1.0323     4.160        1-2     4.2489 /_   28.8    1.0214
   -            2       2.4113 /_ -121.0     1.004     4.160        2-3     4.2085 /_  -91.3    1.0117
   -            3       2.4295 /_  118.2    1.0116     4.160        3-1     4.2211 /_  149.2    1.0147
NODE_30135730 . 2       2.4249 /_ -120.8    1.0096     4.160
NODE_302511 ... 2       2.4447 /_ -120.7    1.0179     4.160
NODE_302947 ... 2        2.467 /_ -120.6    1.0271     4.160
NODE_244946 ... 1       2.4958 /_   -0.2    1.0392     4.160
NODE_302949 ... 1       2.4981 /_   -0.2    1.0401     4.160
NODE_302592 ... 1        2.479 /_   -0.4    1.0321     4.160        1-2     4.2518 /_   28.9    1.0221
   -            2        2.414 /_ -121.0    1.0051     4.160        2-3     4.2125 /_  -91.3    1.0126
   -            3       2.4336 /_  118.3    1.0132     4.160        3-1     4.2251 /_  149.3    1.0157
NODE_302594 ... 3       2.4336 /_  118.3    1.0133     4.160
NODE_244842 ... 1       2.4798 /_   -0.4    1.0325     4.160        1-2     4.2446 /_   28.8    1.0203
   -            2       2.4069 /_ -121.0    1.0021     4.160        2-3     4.2023 /_  -91.4    1.0102
   -            3       2.4241 /_  118.1    1.0093     4.160        3-1     4.2152 /_  149.2    1.0133
NODE_244863 ... 1       2.4827 /_   -0.4    1.0337     4.160
NODE_303450 ... 2        2.417 /_ -120.9    1.0063     4.160
NODE_10001075 . 1       2.4787 /_   -0.4     1.032     4.160        1-2     4.2524 /_   28.9    1.0222
   -            2       2.4146 /_ -121.0    1.0053     4.160        2-3     4.2134 /_  -91.2    1.0128
   -            3       2.4346 /_  118.3    1.0137     4.160        3-1      4.226 /_  149.3    1.0159
NODE_11014095 . 3        2.493 /_  119.4     1.038     4.160
NODE_11014087 . 3        2.493 /_  119.4     1.038     4.160
NODE_30019514 . 3       2.4931 /_  119.4     1.038     4.160
NODE_30019518 . 3        2.493 /_  119.4     1.038     4.160
NODE_30034605 . 1       2.4823 /_   -0.4    1.0335     4.160
NODE_30043141 . 1         2.48 /_   -0.5    1.0326     4.160        1-2     4.2423 /_   28.8    1.0198
   -            2       2.4046 /_ -121.0    1.0012     4.160        2-3     4.1989 /_  -91.4    1.0093
   -            3       2.4211 /_  118.0     1.008     4.160        3-1      4.212 /_  149.2    1.0125
DEV_51197855 .. 1         2.48 /_   -0.5    1.0326     4.160        1-2     4.2423 /_   28.8    1.0198
   -            2       2.4046 /_ -121.0    1.0012     4.160        2-3      4.199 /_  -91.4    1.0094
   -            3       2.4212 /_  118.0    1.0081     4.160        3-1     4.2121 /_  149.2    1.0125
NODE_30043144 . 1         2.48 /_   -0.5    1.0326     4.160        1-2     4.2424 /_   28.8    1.0198
   -            2       2.4047 /_ -121.0    1.0012     4.160        2-3     4.1991 /_  -91.4    1.0094
   -            3       2.4213 /_  118.0    1.0081     4.160        3-1     4.2123 /_  149.2    1.0126
NODE_30135728 . 1       2.4823 /_   -0.4    1.0335     4.160
NODE_30105653 . 2       2.4132 /_ -121.0    1.0048     4.160
NODE_302602 ... 3        2.434 /_  118.3    1.0134     4.160
